LAMMPS (17 Nov 2016)
dimension			2
units			lj
atom_style			molecular
boundary p p p
atom_modify			sort 0 1

read_data			hof_1_data.data
  orthogonal box = (-75 -50 -1) to (75 50 1)
  reading atoms ...
  127 atoms
  scanning bonds ...
  scanning angles ...
  reading bonds ...
  120 bonds
  reading angles ...
  120 angles
neigh_modify			every 1 delay 1
bond_style			harmonic
bond_coeff			1 30 1.3
angle_style			harmonic
angle_coeff			1 30 180
pair_style			lj/cut 5.04
pair_coeff			* * 0 0 0
pair_coeff			1 4 6.5625 1 2.5
pair_coeff			1 5 0.78125 1 2.5
pair_coeff			1 6 7.96875 1 2.5
pair_coeff			1 7 6.25 1 2.5
pair_coeff			1 8 0.0 1 2.5
pair_coeff			1 9 8.4375 1 2.5
pair_coeff			1 3 100 4.5 5.0
pair_coeff			1 1 100 1.0 1.12246
pair_coeff			1 2 100 1.0 1.12246
pair_modify			shift yes
dump			id all xyz 100 ../out/hof_1_out.xyz
group			move type 1
118 atoms in group move
group			anchor type 2
2 atoms in group anchor
group			protein type 3 4 5 6 7 8 9
7 atoms in group protein
velocity move create 1.0 1
velocity protein set 0 -2 0
fix			0 all enforce2d
fix			1 move nph x 0.0 0.0 1.0 y 0.0 0.0 1.0 couple xy
fix			2 protein rigid/nve molecule
1 rigid bodies with 7 atoms
fix			3 all langevin 1 1 1 1000

thermo			300
timestep			0.005
run			100000
  1 neighbor list requests
  update every 1 steps, delay 1 steps, check yes
Step Temp E_pair E_mol TotEng Press Volume
0    1.0217427            0    3.4532334    4.4226822 -0.00049187953        15000
Averages over the last 168 of 335 rows, steps 50100 to 100000:
Temp E_pair E_mol TotEng Press Volume
0.982452 -0.112745 4.91877 5.7382 -0.000392462 15241.4
Loop time of 4.05381 on 1 procs for 100000 steps with 127 atoms
